National Centers for Environmental Prediction NCEP Web Team nwscwi main css contents Skip Navigation Links http www nws noaa gov www nws noaa gov http www noaa gov NOAA logo Click to go to the NOAA homepage National Weather Service http www nws noaa gov NWS logo Click to go to the NWS homepage Your Center Goes Here sitemap html Site Map http 205 156 54 206 pa News http www wrh noaa gov wrhq nwspage html Organization Search Search field for weather information Press Enter or select the go button to submit request Search field for local site information Press Enter or select the go button to submit request Search EMC Operational Model Output http www emc ncep noaa gov forecasts Global 6 hrly Output http wwwt emc ncep noaa gov gmb STATS MAPS html Global model page w continuity maps http www emc ncep noaa gov mmb mmbpll etaop ETA http polar wwb noaa gov waves Welcome html WAVEWATCH III Model Information http www emc ncep noaa gov modelinfo Documentation http www emc ncep noaa gov modelperf Performance Statistics http www emc ncep noaa gov experiments html Experimental Parallel Runs http www emc ncep noaa gov data Observations Data http www emc ncep noaa gov seminars Seminar Series Computing Environment http www ncep noaa gov NCO NCCF NCEP HPC index htm Operational IBM Class 8 EMC Branches http www emc ncep noaa gov research cmb Climate Modeling http wwwt emc ncep noaa gov gmb Global Modeling http www emc ncep noaa gov mmb mesoscale html Mesoscale Modeling http polar wwb noaa gov Welcome html Marine Modeling and Analysis Other Information http www emc ncep noaa gov collaborators Collaborators http wwwt emc ncep noaa gov projects Ongoing Projects http www emc ncep noaa gov information research Research Projects http www emc ncep noaa gov annrepts Annual Reports to the WMO http sgi62 wwb noaa gov 8080 research global2 html In House Web Site About Us mission html Our Mission http www emc ncep noaa gov information personnel Our Personnel Contact Us http www emc ncep noaa gov comment form html Webmaster Top News of the Day http www wrh noaa gov nwscwi information htm Information about the new National Weather Service web page design and comment area HOT TOPICS Links to presentations as available from annual NCEP production suite reviews http www emc ncep noaa gov NCEPreview2002 index htm 2002 http www emc ncep noaa gov AnnualReview2001AGENDA wpd html 2001 New Short Range Ensemble Forecast SREF system interface now operational Go to http wwwt emc ncep noaa gov mmb SREF SREF html current SREF page for link http wwwt emc ncep noaa gov officenotes NCEP office note index list a list of publications on modeling and computational methods http wwwt emc ncep noaa gov gmb targobs Targeted observations experiment WSR Program http www emc ncep noaa gov mmb wrf index html Weather Research and Forecast WRF Model slideshow http www emc ncep noaa gov information wkmorpts index html Weekly and monthly reports GFDL hurricane model gfdl 2003 upgrades pdf Document on Improvements to the GFDL Hurricane Prediction System in 2003 RUC model http www emc ncep noaa gov mmb rucmeteograms index html New RUC meteograms Eta Meso model http wwwt emc ncep noaa gov mmb svrfcst index html Eta Convective Forecasting Page http www emc ncep noaa gov mmb meteograms index html New meteograms for regions over North America http www emc ncep noaa gov mmb mmbpll etapll32 Parallel Eta Meso experiments at 32 km resolution with http wwwt emc ncep noaa gov mmb mmbpll paralog parallel change log http www emc ncep noaa gov mmb mmbpll etapll Newly implemented Eta 12 with comparisons to Eta Meso parallel if available Global forecast system and NGM and links to parallel change log page GRIB and BUFR data Global Forecast System http wwwt emc ncep noaa gov gmb STATS MAPS html Continuity maps by Pete Caplan Global Forecast System now running to 384 hours four times per day For details go http www emc ncep noaa gov gmb mrfdemise htm here Parallel Global Forecast System with GDAS and long wave radiation changes http wwwt emc ncep noaa gov gmb STATS maps prx parl254 html Maps for GFS operational and parallel runs http wwwt emc ncep noaa gov gmb STATS STATS html Performance statistics for new X versus old Global Forecast System model and other global models http wwwt emc ncep noaa gov gmb STATS MAPS html Map homepage for Global Forecast System 00z run to 180 h 12z run to 168 h http wwwt emc ncep noaa gov gmb para parahome html Parallel Global Forecast System forecast runs home page for technical information on proposed changes placed in the parallel run http www emc ncep noaa gov mmb research nearsfc nearsfc verf html Near surface model verification for Eta Meso Global Forecast System and NGM 2 m temperature moisture 10 m winds Local Topics Model Output http www emc ncep noaa gov forecasts Global Fcst System http www emc ncep noaa gov mmb mmbpll etaop Eta Meso http polar wwb noaa gov waves Welcome html WAVEWATCH III Model Info http www emc ncep noaa gov modelinfo Documentation http www emc ncep noaa gov modelperf Statistics http www emc ncep noaa gov experiments html Experimental Parallel Runs http www emc ncep noaa gov data Data EMC Branches http www emc ncep noaa gov research cmb Climate Modeling http www emc ncep noaa gov gmb Global Modeling http www emc ncep noaa gov mmb mesoscale html Mesoscale Modeling http polar wwb noaa gov Welcome html Marine Modeling and Analysis Other Info http www emc ncep noaa gov projects Ongoing Projects http www emc ncep noaa gov information research Research Projects http www emc ncep noaa gov comment form html Contact Us http www noaa gov NOAA http www nws noaa gov National Weather Service http www ncep noaa gov National Centers for Environmental Prediction Environmental Modeling Center 5200 Auth Road Camp Springs Maryland 20746 4304 http www emc ncep noaa gov comment form html Comments for the Webmaster http www nws noaa gov disclaimer html Disclaimer http www noaa gov privacy html Privacy Policy Page last modified Friday 08 JUL 2003 11 30 06 GMT
